Using: /usr/synopsys/HSPICE/hspice/O-2018.09-1/hspice/linux64/hspice  -i 'nmos.sp'
 ****** HSPICE -- O-2018.09-1 linux64 (Sep 27 2018) ******                      
  Copyright (c) 1986 - 2025 by Synopsys, Inc. All Rights Reserved.              
  This software and the associated documentation are proprietary
  to Synopsys, Inc. This software may only be used in accordance
  with the terms and conditions of a written license agreement with
  Synopsys, Inc. All other use, reproduction, or distribution of
  this software is strictly prohibited.
  Input File: nmos.sp                                                           
  Command line options: /usr/synopsys/HSPICE/hspice/O-2018.09-1/hspice/linux64/hspice -i nmos.sp
 lic:  
 lic: FLEXlm: SDK_11.6.9.6 
 lic: USER:   mohammed             HOSTNAME: husynposyseng 
 lic: HOSTID: 005056ba9913         PID:      12582 
 lic: Using FLEXlm license file: 
 lic: 27020@husynposyseng 
 lic: Checkout 1 hspice 
 lic: License/Maintenance for hspice will expire on 31-jan-2026/2025.06 
 lic: 2(in_use)/100(total) FLOATING license(s) on SERVER 27020@husynposyseng 
 lic:   
1****** HSPICE -- O-2018.09-1 linux64 (Sep 27 2018) ******                      
 ******  
 * nmos.sp

 ****** circuit name directory
 circuit number to circuit name directory
   number circuitname                     definition         multiplier
        0 main circuit
        1 mmn.                            n105_hvt           1.00 
 ******  
 * nmos.sp

 ****** mos   model parameters tnom=  25.000 temp=  25.000 ******
 Model file: ../../saed32nm.lib
 Model line:         1730
 Model Name: n105_hvt  
 BSIM4 Model (Level 54)
    MOBMOD = 0
    BINUNIT = 1
    PARAMCHK = 0
    CAPMOD = 2
    DIOMOD = 1
    RDSMOD = 0
    TRNQSMOD = 0
    ACNQSMOD = 0
    RBODYMOD = 0
    RGATEMOD = 0
    PERMOD = 1
    GEOMOD = 0
    RGEOMOD = 0
    FNOIMOD = 1
    TNOIMOD = 0
    IGCMOD = 1
    IGBMOD = 1
    STIMOD = 1
    VBFWDMOD = 0
    VERSION =    4.5 
    TOXREF = 2.39e-09 
    TOXE = 2.39e-09 
    TOXP = 2.24e-09 
    TOXM = 2.39e-09 
    DTOX =      0 
    EPSROX =    3.9 
    CDSC =      0 
    CDSCB = -0.00415 
    CDSCD =      0 
    CIT =      0 
    NFACTOR =    1.9 
    XJ =  1e-07 
    VSAT = 2.141e+05 
    A0 =    1.8 
    AGS =  1.232 
    A1 =      0 
    A2 =    0.4 
    AT = 0.00122 
    KETA =      0 
    NSUB =  6e+16 
    NDEP =  5e+17 
    NSD =  1e+20 
    NGATE =  1e+23 
    GAMMA1 =      0 
    GAMMA2 =      0 
    VBX =      0 
    VBM =     -3 
    XT = 1.55e-07 
    K1 = 0.3435 
    KT1 = -0.2796 
    KT1L =  1e-11 
    KT2 = -0.0232 
    K2 = -0.03171 
    K3 =  -2.15 
    K3B =  -0.22 
    LPE0 =  1e-08 
    LPEB =  2e-08 
    DVTP0 = 1.2e-06 
    DVTP1 =      0 
    W0 =      0 
    DVT0 =  3.571 
    DVT1 =    0.8 
    DVT2 =   0.06 
    DVT0W = -0.002336 
    DVT1W = 4.278e+05 
    DVT2W =   0.15 
    DROUT =   0.06 
    DSUB =    0.9 
    VTH0 =  0.447 
    EU =   1.67 
    UA = 9.209e-10 
    UA1 = 0.003827 
    UB = 2.207e-18 
    UB1 = -0.004406 
    UC = 2.6e-10 
    UC1 =      0 
    U0 =   1900 
    UTE =  -1.91 
    VOFF = -0.1554 
    VOFFL = -2.94e-09 
    MINV = -0.168 
    FPROUT =     50 
    PDITS = 0.5299 
    PDITSD =    0.9 
    PDITSL = 2.5e+06 
    DELTA =  0.005 
    RDSW =  400.5 
    RDSWMIN =      0 
    RDWMIN =    180 
    RSWMIN =    180 
    RDW =    100 
    RSW =    100 
    PRWG =      0 
    PRWB =    0.1 
    PRT =  0.015 
    ETA0 =  0.263 
    ETAB =  -0.12 
    PCLM = 0.5198 
    PDIBLC1 = 0.00015 
    PDIBLC2 =  0.025 
    PDIBLCB =   -0.7 
    PSCBE1 =  5e+09 
    PSCBE2 =  5e-06 
    PVAG =      6 
    WR =      1 
    DWG =      0 
    DWB =      0 
    XW = 4.3e-07 
    XWREF = 4.3e-07 
    XL =  2e-09 
    XLREF =  2e-09 
    B0 =      0 
    B1 =      0 
    ALPHA0 =  4e-12 
    ALPHA1 =      0 
    AGIDL = 1.5e-10 
    BGIDL = 9.749e+08 
    CGIDL =    3.2 
    PHIN =    0.1 
    EGIDL =   0.01 
    AIGC = 0.01086 
    BIGC = 0.0009868 
    CIGC = 0.000296 
    AIGSD = 0.00889 
    BIGSD = 0.0007742 
    CIGSD = 0.01464 
    AIGBACC = 0.01356 
    BIGBACC = 0.00279 
    CIGBACC = 0.01086 
    AIGBINV = 0.01142 
    BIGBINV = 0.001212 
    CIGBINV = 0.001479 
    NIGC =  3.294 
    NIGBINV =      3 
    NIGBACC =   8.23 
    NTOX =      1 
    EIGBINV =    1.1 
    PIGCD =      1 
    POXEDGE =  1.276 
    XRCRG1 =     12 
    TNOIA =    1.5 
    TNOIB =    3.5 
    NTNOI =      1 
    XRCRG2 =      1 
    BETA0 =      2 
    IJTHDFWD =    0.1 
    IJTHSFWD =    0.1 
    IJTHDREV =    0.1 
    IJTHSREV =    0.1 
    XJBVD =      1 
    XJBVS =      1 
    BVD =     12 
    BVS =     12 
    VFB =     -1 
    GBMIN =  1e-12 
    RBDB =     50 
    RBPB =     50 
    RBSB =     50 
    RBPS =     50 
    RBPD =     50 
    CGSL = 1.765e-10 
    CGDL = 1.077e-09 
    CKAPPAS =    4.5 
    CKAPPAD =    4.5 
    CF =      0 
    CLC =      0 
    CLE =    0.6 
    DWC =      0 
    DLC = 7.834e-09 
    DLCIG =  5e-09 
    DWJ =      0 
    VFBCV =     -1 
    ACDE =    0.4 
    MOIN =      5 
    NOFF =  2.118 
    VOFFCV = -0.2843 
    DMCG =  7e-08 
    DMCI = 3.5e-08 
    DMDG =  6e-08 
    DMCGT =      0 
    XGW =  4e-08 
    XGL = -2e-09 
    RSHG =     11 
    NGCON =      1 
    TCJ = 0.0007111 
    TPB = 0.001251 
    TCJSW = 0.0005498 
    TPBSW = 0.00108 
    TCJSWG = 6.6e-05 
    TPBSWG = 0.002588 
    SK0 =      0 
    SK1 =      0 
    SK2 =      0 
    SL =  2e-06 
    SW =  2e-06 
    K =      0 
    LNFACTOR =   0.05 
    LLPE0 = 2.5e-09 
    LUTE = 0.03886 
    LBGIDL = -5e+06 
    LAIGC = -7.7e-06 
    LNOFF =   0.08 
    WU0 =  56.01 
    PVSAT =  223.3 
    TNOM =  298.1 
    CGSO = 5.1e-11 
    CGDO = 5.1e-11 
    CGBO =  1e-12 
    XPART =      0 
    RSH =     12 
    JSS =  1e-06 
    JSWS = 1.484e-13 
    JSWGS = 7.172e-13 
    PBS = 0.8977 
    MJS = 0.4077 
    PBSWS =      1 
    MJSWS = 0.5128 
    CJS = 0.1935 
    CJSWS = 8.2e-11 
    NJS =  1.104 
    PBSWGS =  1.442 
    MJSWGS =   0.98 
    CJSWGS = 3.2e-10 
    XTIS =   -0.6 
    JSD =  1e-06 
    JSWD = 1.484e-13 
    JSWGD = 7.172e-13 
    PBD = 0.8977 
    MJD = 0.4077 
    PBSWD =      1 
    MJSWD = 0.5128 
    CJD = 0.1935 
    CJSWD = 8.2e-11 
    NJD =  1.104 
    PBSWGD =  1.442 
    MJSWGD =   0.98 
    CJSWGD = 3.2e-10 
    XTID =   -0.6 
    LMLT =      1 
    WMLT =      1 
    LINT = 1.934e-10 
    LL =      0 
    LLC =      0 
    LLN =      1 
    LW =      0 
    LWC =      0 
    LWN =      1 
    LWL =      0 
    LWLC =      0 
    LMIN =      0 
    LMAX =      1 
    WINT =      0 
    WL =      0 
    WLC =      0 
    WLN =      1 
    WW =      0 
    WWC =      0 
    WWN =      1 
    WWL =      0 
    WWLC =      0 
    WMIN =      0 
    WMAX =      1 
    NOIA = 6.72e+41 
    NOIB = 5.413e+23 
    NOIC = 2.288e+09 
    EM = 4.1e+07 
    EF =   0.95 
    AF =      1 
    KF = 1.5e-27 
    TRS =      0 
    TRD =      0 
    TEMPMOD  =      1 
    LAMBDA   =      0 
    VTL      =  2e+05 m/s
    LC       =  5e-09 
    XN       =      3 
    LLAMBDA  =      0 
    LVTL     =      0 
    LXN      =      0 
    WLAMBDA  =      0 
    WVTL     =      0 
    WXN      =      0 
    PLAMBDA  =      0 
    PVTL     =      0 
    PXN      =      0 
    RNOIA    =  0.577 
    RNOIB    = 0.5164 
    SAREF(SA0) = 4.48e-07 m
    SBREF(SB0) = 4.48e-07 m
    WLOD     =      0 m
    KU0      =      0 1/m
    KVSAT    =      0 
    KVTH0    = 6.5e-10 m
    TKU0     =      0 
    LLODKU0  =      0 
    WLODKU0  =      0 
    LLODVTH  =      0 
    WLODVTH  =      0 
    LKU0     =      0 
    WKU0     =      0 
    PKU0     =      0 
    LKVTH0   =      0 
    WKVTH0   =      0 
    PKVTH0   =      0 
    STK2     =      0 
    LODK2    =      1 
    STETA0   =      0 
    LODETA0  =      1 
    LXRCRG1  =      0 
    WXRCRG1  =      0 
    PXRCRG1  =      0 
    LXRCRG2  =      0 
    WXRCRG2  =      0 
    PXRCRG2  =      0 
     *** UCB's BSIM4.4.0 new diode model is activated. ***
    *** UCB's Diode Model Parameters ***
    JTSS         =  5e-06 
    JTSSWS       = 1.2e-10 
    JTSSWGS      = 1.634e-08 
    JTSD         =  5e-06 
    JTSSWD       = 1.2e-10 
    JTSSWGD      = 1.634e-08 
    NJTS         =     20 
    NJTSSW       =     60 
    NJTSSWG      =  7.854 
    XTSS         =   0.02 
    XTSSWS       = 0.5842 
    XTSSWGS      =   0.09 
    XTSD         =   0.02 
    XTSSWD       = 0.5842 
    XTSSWGD      =   0.09 
    TNJTS        =      0 
    TNJTSSW      =    0.8 
    TNJTSSWG     =   0.04 
    VFBSDOFF     =      0 
    LVFBSDOFF    =      0 
    WVFBSDOFF    =      0 
    PVFBSDOFF    =      0 
    LINTNOI      =      0 
    VTSS         =     20 
    VTSD         =     20 
    VTSSWS       =     10 
    VTSSWD       =     10 
    VTSSWGS      =   10.8 
    VTSSWGD      =   10.8 
    TTDIOMOD     =      1 
     *** UCB's BSIM4.5.0 new model is activated. ***
    UD         =      0 
    UD1        =      0 
    UP         =   0.77 
    LP         = 9.65e-08 
    TVOFF      = 0.000366 
    TVFBSDOFF  =      0 
    RBPS0      =     50 
    RBPSL      =      0 
    RBPSW      =      0 
    RBPSNF     =      0 
    RBPD0      =     50 
    RBPDL      =      0 
    RBPDW      =      0 
    RBPDNF     =      0 
    RBPBX0     =    100 
    RBPBXL     =      0 
    RBPBXW     =      0 
    RBPBXNF    =      0 
    RBPBY0     =    100 
    RBPBYL     =      0 
    RBPBYW     =      0 
    RBPBYNF    =      0 
    RBSBX0     =    100 
    RBSBY0     =    100 
    RBDBX0     =    100 
    RBDBY0     =    100 
    RBSDBXL    =      0 
    RBSDBXW    =      0 
    RBSDBXNF   =      0 
    RBSDBYL    =      0 
    RBSDBYW    =      0 
    RBSDBYNF   =      0 
    LUD        =      0 
    LUD1       =      0 
    LUP        =      0 
    LLP        =      0 
    LTVOFF     =      0 
    LTVFBSDOFF =      0 
    WUD        =      0 
    WUD1       =      0 
    WUP        =      0 
    WLP        =      0 
    WTVOFF     =      0 
    WTVFBSDOFF =      0 
    PUD        =      0 
    PUD1       =      0 
    PUP        =      0 
    PLP        =      0 
    PTVOFF     =      0 
    PTVFBSDOFF =      0 
    WEB        = 7.5e+05 
    WEC        = -1e+05 
    KVTH0WE    = 6.361e-07 
    K2WE       =      0 
    KU0WE      =      0 
    SCREF      = 2.5e-06 
    WPEMOD     =      1 
    LKVTH0WE   =      0 
    LK2WE      =      0 
    LKU0WE     =      0 
    WKVTH0WE   =      0 
    WK2WE      =      0 
    WKU0WE     =      0 
    PKVTH0WE   =      0 
    PK2WE      =      0 
    PKU0WE     =      0 
  **warning** (nmos.sp:16) Both nodes of element vgnd are connected together; Line ignored.
  

  **warning** the following singular supplies were terminated to 1 meg resistor 
          supply       node1            node2
(nmos.sp:15)vvdd                    0:vdd              defined in subckt 0                     0:0                defined in subckt 0               
      

Element variations(Local):   element              parameter
 *****************************************************************
 ******  option summary
 ******
 runlvl  = 3         bypass  = 2.0000    
  Opening plot unit= 15
 file=nmos.pa0

 ******
 * nmos.sp

 ****** dc transfer curves tnom=  25.000 temp=  70.000 ******
  *** parameter 0:vgs  =     0.            ***
  
x

 volt         current     current     current    current    
             vds         vgs         vvdd       mmn.main    
    0.       -9.7398e-22  2.0390e-21   -1.8000u  9.7398e-22 
   50.00000m  -17.3372p     3.3072f    -1.8000u   17.3372p  
  100.00000m  -31.5830p     8.6837f    -1.8000u   31.5830p  
  150.00000m  -48.4633p    16.5499f    -1.8000u   48.4633p  
  200.00000m  -69.9291p    27.3892f    -1.8000u   69.9291p  
  250.00000m  -97.7622p    41.7565f    -1.8000u   97.7622p  
  300.00000m -134.0123p    60.2872f    -1.8000u  134.0123p  
  350.00000m -181.2037p    83.7079f    -1.8000u  181.2037p  
  400.00000m -242.5058p   112.8481f    -1.8000u  242.5058p  
  450.00000m -321.9196p   148.6533f    -1.8000u  321.9196p  
  500.00000m -424.5014p   192.1994f    -1.8000u  424.5014p  
  550.00000m -556.6393p   244.7095f    -1.8000u  556.6393p  
  600.00000m -726.3970p   307.5718f    -1.8000u  726.3970p  
  650.00000m -943.9433p   382.3605f    -1.8000u  943.9433p  
  700.00000m   -1.2221n   470.8586f    -1.8000u    1.2221n  
  750.00000m   -1.5769n   575.0834f    -1.8000u    1.5769n  
  800.00000m   -2.0287n   697.3154f    -1.8000u    2.0287n  
  850.00000m   -2.6028n   840.1300f    -1.8000u    2.6028n  
  900.00000m   -3.3310n     1.0064p    -1.8000u    3.3310n  
  950.00000m   -4.2529n     1.1995p    -1.8000u    4.2529n  
    1.00000    -5.4181n     1.4230p    -1.8000u    5.4181n  
    1.05000    -6.8883n     1.6812p    -1.8000u    6.8883n  
    1.10000    -8.7404n     1.9786p    -1.8000u    8.7404n  
    1.15000   -11.0697n     2.3206p    -1.8000u   11.0697n  
    1.20000   -13.9947n     2.7130p    -1.8000u   13.9947n  
    1.25000   -17.6623n     3.1626p    -1.8000u   17.6623n  
    1.30000   -22.2543n     3.6767p    -1.8000u   22.2543n  
    1.35000   -27.9957n     4.2637p    -1.8000u   27.9957n  
    1.40000   -35.1641n     4.9330p    -1.8000u   35.1641n  
    1.45000   -44.1024n     5.6950p    -1.8000u   44.1024n  
    1.50000   -55.2328n     6.5617p    -1.8000u   55.2328n  
    1.55000   -69.0749n     7.5461p    -1.8000u   69.0749n  
    1.60000   -86.2666n     8.6629p    -1.8000u   86.2666n  
    1.65000  -107.5905n     9.9288p    -1.8000u  107.5905n  
    1.70000  -134.0046n    11.3622p    -1.8000u  134.0046n  
    1.75000  -166.6792n    12.9837p    -1.8000u  166.6792n  
    1.80000  -207.0408n    14.8165p    -1.8000u  207.0408n  
y
 ******
 * nmos.sp

 ****** dc transfer curves tnom=  25.000 temp=  70.000 ******
  *** parameter 0:vgs  =   200.0000m       ***
  
x

 volt         current    current    current    current   
             vds        vgs        vvdd       mmn.main   
    0.         11.5292f  -23.1117f   -1.8000u  -11.5292f 
   50.00000m   -1.2540n  -22.7139f   -1.8000u    1.2540n 
  100.00000m   -2.2805n  -23.5124f   -1.8000u    2.2805n 
  150.00000m   -3.4940n  -23.2805f   -1.8000u    3.4940n 
  200.00000m   -5.0336n  -21.6721f   -1.8000u    5.0336n 
  250.00000m   -7.0251n  -18.3625f   -1.8000u    7.0251n 
  300.00000m   -9.6117n  -12.9848f   -1.8000u    9.6117n 
  350.00000m  -12.9686n   -5.1181f   -1.8000u   12.9686n 
  400.00000m  -17.3137n    5.7214f   -1.8000u   17.3137n 
  450.00000m  -22.9202n   20.0885f   -1.8000u   22.9202n 
  500.00000m  -30.1296n   38.6188f   -1.8000u   30.1296n 
  550.00000m  -39.3691n   62.0391f   -1.8000u   39.3691n 
  600.00000m  -51.1711n   91.1787f   -1.8000u   51.1711n 
  650.00000m  -66.1980n  126.9832f   -1.8000u   66.1980n 
  700.00000m  -85.2708n  170.5286f   -1.8000u   85.2708n 
  750.00000m -109.4045n  223.0378f   -1.8000u  109.4045n 
  800.00000m -139.8495n  285.8992f   -1.8000u  139.8495n 
  850.00000m -178.1410n  360.6869f   -1.8000u  178.1410n 
  900.00000m -226.1567n  449.1839f   -1.8000u  226.1567n 
  950.00000m -286.1835n  553.4075f   -1.8000u  286.1835n 
    1.00000  -360.9950n  675.6382f   -1.8000u  360.9950n 
    1.05000  -453.9384n  818.4515f   -1.8000u  453.9384n 
    1.10000  -569.0321n  984.7535f   -1.8000u  569.0321n 
    1.15000  -711.0721n    1.1778p   -1.8000u  711.0721n 
    1.20000  -885.7451n    1.4013p   -1.8000u  885.7451n 
    1.25000    -1.0997u    1.6595p   -1.8000u    1.0997u 
    1.30000    -1.3609u    1.9569p   -1.8000u    1.3609u 
    1.35000    -1.6782u    2.2989p   -1.8000u    1.6782u 
    1.40000    -2.0621u    2.6913p   -1.8000u    2.0621u 
    1.45000    -2.5243u    3.1409p   -1.8000u    2.5243u 
    1.50000    -3.0778u    3.6550p   -1.8000u    3.0778u 
    1.55000    -3.7370u    4.2420p   -1.8000u    3.7370u 
    1.60000    -4.5174u    4.9113p   -1.8000u    4.5174u 
    1.65000    -5.4355u    5.6733p   -1.8000u    5.4355u 
    1.70000    -6.5078u    6.5400p   -1.8000u    6.5078u 
    1.75000    -7.7512u    7.5243p   -1.8000u    7.7512u 
    1.80000    -9.1813u    8.6412p   -1.8000u    9.1813u 
y
 ******
 * nmos.sp

 ****** dc transfer curves tnom=  25.000 temp=  70.000 ******
  *** parameter 0:vgs  =   400.0000m       ***
  
x

 volt         current    current    current    current   
             vds        vgs        vvdd       mmn.main   
    0.        165.6817f -331.4101f   -1.8000u -165.6817f 
   50.00000m  -80.8868n -318.0862f   -1.8000u   80.8868n 
  100.00000m -145.0297n -310.1255f   -1.8000u  145.0297n 
  150.00000m -218.6676n -305.0063f   -1.8000u  218.6676n 
  200.00000m -309.4987n -301.7848f   -1.8000u  309.4987n 
  250.00000m -423.6030n -301.6684f   -1.8000u  423.6030n 
  300.00000m -567.2444n -302.5538f   -1.8000u  567.2444n 
  350.00000m -747.4386n -302.3668f   -1.8000u  747.4386n 
  400.00000m -972.1947n -300.8060f   -1.8000u  972.1947n 
  450.00000m   -1.2506u -297.5517f   -1.8000u    1.2506u 
  500.00000m   -1.5931u -292.2387f   -1.8000u    1.5931u 
  550.00000m   -2.0110u -284.4471f   -1.8000u    2.0110u 
  600.00000m   -2.5169u -273.6942f   -1.8000u    2.5169u 
  650.00000m   -3.1242u -259.4263f   -1.8000u    3.1242u 
  700.00000m   -3.8470u -241.0091f   -1.8000u    3.8470u 
  750.00000m   -4.6995u -217.7173f   -1.8000u    4.6995u 
  800.00000m   -5.6959u -188.7230f   -1.8000u    5.6959u 
  850.00000m   -6.8490u -153.0823f   -1.8000u    6.8490u 
  900.00000m   -8.1705u -109.7210f   -1.8000u    8.1705u 
  950.00000m   -9.6695u  -57.4179f   -1.8000u    9.6695u 
    1.00000   -11.3521u    5.2135f   -1.8000u   11.3521u 
    1.05000   -13.2203u   79.7454f   -1.8000u   13.2203u 
    1.10000   -15.2721u  167.9588f   -1.8000u   15.2721u 
    1.15000   -17.5004u  271.8690f   -1.8000u   17.5004u 
    1.20000   -19.8934u  393.7543f   -1.8000u   19.8934u 
    1.25000   -22.4342u  536.1883f   -1.8000u   22.4342u 
    1.30000   -25.1018u  702.0749f   -1.8000u   25.1018u 
    1.35000   -27.8714u  894.6891f   -1.8000u   27.8714u 
    1.40000   -30.7154u    1.1177p   -1.8000u   30.7154u 
    1.45000   -33.6050u    1.3753p   -1.8000u   33.6050u 
    1.50000   -36.5109u    1.6722p   -1.8000u   36.5109u 
    1.55000   -39.4048u    2.0135p   -1.8000u   39.4048u 
    1.60000   -42.2605u    2.4053p   -1.8000u   42.2605u 
    1.65000   -45.0551u    2.8541p   -1.8000u   45.0551u 
    1.70000   -47.7695u    3.3674p   -1.8000u   47.7695u 
    1.75000   -50.3891u    3.9536p   -1.8000u   50.3891u 
    1.80000   -52.9036u    4.6220p   -1.8000u   52.9036u 
y
 ******
 * nmos.sp

 ****** dc transfer curves tnom=  25.000 temp=  70.000 ******
  *** parameter 0:vgs  =   600.0000m       ***
  
x

 volt         current    current    current    current   
             vds        vgs        vvdd       mmn.main   
    0.        918.2890f   -1.8366p   -1.8000u -918.2890f 
   50.00000m   -2.4456u   -1.7897p   -1.8000u    2.4456u 
  100.00000m   -4.0700u   -1.7649p   -1.8000u    4.0700u 
  150.00000m   -5.6079u   -1.7500p   -1.8000u    5.6079u 
  200.00000m   -7.2227u   -1.7396p   -1.8000u    7.2227u 
  250.00000m   -8.9676u   -1.7326p   -1.8000u    8.9676u 
  300.00000m  -10.8619u   -1.7285p   -1.8000u   10.8619u 
  350.00000m  -12.9104u   -1.7267p   -1.8000u   12.9104u 
  400.00000m  -15.1101u   -1.7271p   -1.8000u   15.1101u 
  450.00000m  -17.4528u   -1.7308p   -1.8000u   17.4528u 
  500.00000m  -19.9260u   -1.7358p   -1.8000u   19.9260u 
  550.00000m  -22.5150u   -1.7400p   -1.8000u   22.5150u 
  600.00000m  -25.2029u   -1.7432p   -1.8000u   25.2029u 
  650.00000m  -27.9722u   -1.7451p   -1.8000u   27.9722u 
  700.00000m  -30.8054u   -1.7452p   -1.8000u   30.8054u 
  750.00000m  -33.6854u   -1.7432p   -1.8000u   33.6854u 
  800.00000m  -36.5967u   -1.7387p   -1.8000u   36.5967u 
  850.00000m  -39.5250u   -1.7309p   -1.8000u   39.5250u 
  900.00000m  -42.4584u   -1.7195p   -1.8000u   42.4584u 
  950.00000m  -45.3869u   -1.7035p   -1.8000u   45.3869u 
    1.00000   -48.3030u   -1.6823p   -1.8000u   48.3030u 
    1.05000   -51.2009u   -1.6548p   -1.8000u   51.2009u 
    1.10000   -54.0772u   -1.6201p   -1.8000u   54.0772u 
    1.15000   -56.9299u   -1.5768p   -1.8000u   56.9299u 
    1.20000   -59.7588u   -1.5237p   -1.8000u   59.7588u 
    1.25000   -62.5647u   -1.4590p   -1.8000u   62.5647u 
    1.30000   -65.3493u   -1.3812p   -1.8000u   65.3493u 
    1.35000   -68.1153u   -1.2880p   -1.8000u   68.1153u 
    1.40000   -70.8656u   -1.1774p   -1.8000u   70.8656u 
    1.45000   -73.6033u   -1.0466p   -1.8000u   73.6033u 
    1.50000   -76.3317u -892.8658f   -1.8000u   76.3317u 
    1.55000   -79.0540u -712.8021f   -1.8000u   79.0540u 
    1.60000   -81.7731u -502.7530f   -1.8000u   81.7731u 
    1.65000   -84.4918u -258.5589f   -1.8000u   84.4918u 
    1.70000   -87.2125u   24.4610f   -1.8000u   87.2125u 
    1.75000   -89.9373u  351.5702f   -1.8000u   89.9373u 
    1.80000   -92.6680u  728.6836f   -1.8000u   92.6680u 
y
 ******
 * nmos.sp

 ****** dc transfer curves tnom=  25.000 temp=  70.000 ******
  *** parameter 0:vgs  =   800.0000m       ***
  
x

 volt         current    current    current    current   
             vds        vgs        vvdd       mmn.main   
    0.          2.8552p   -5.7104p   -1.8000u   -2.8552p 
   50.00000m  -15.1549u   -5.5909p   -1.8000u   15.1549u 
  100.00000m  -25.2498u   -5.5122p   -1.8000u   25.2498u 
  150.00000m  -31.6676u   -5.4903p   -1.8000u   31.6676u 
  200.00000m  -36.7151u   -5.4874p   -1.8000u   36.7151u 
  250.00000m  -41.2588u   -5.4941p   -1.8000u   41.2588u 
  300.00000m  -45.5703u   -5.5080p   -1.8000u   45.5703u 
  350.00000m  -49.7574u   -5.5278p   -1.8000u   49.7574u 
  400.00000m  -53.8703u   -5.5527p   -1.8000u   53.8703u 
  450.00000m  -57.9347u   -5.5821p   -1.8000u   57.9347u 
  500.00000m  -61.9646u   -5.6154p   -1.8000u   61.9646u 
  550.00000m  -65.9678u   -5.6523p   -1.8000u   65.9678u 
  600.00000m  -69.9487u   -5.6924p   -1.8000u   69.9487u 
  650.00000m  -73.9095u   -5.7370p   -1.8000u   73.9095u 
  700.00000m  -77.8516u   -5.7839p   -1.8000u   77.8516u 
  750.00000m  -81.7752u   -5.8312p   -1.8000u   81.7752u 
  800.00000m  -85.6802u   -5.8783p   -1.8000u   85.6802u 
  850.00000m  -89.5664u   -5.9251p   -1.8000u   89.5664u 
  900.00000m  -93.4332u   -5.9711p   -1.8000u   93.4332u 
  950.00000m  -97.2800u   -6.0159p   -1.8000u   97.2800u 
    1.00000  -101.1060u   -6.0590p   -1.8000u  101.1060u 
    1.05000  -104.9106u   -6.0998p   -1.8000u  104.9106u 
    1.10000  -108.6930u   -6.1376p   -1.8000u  108.6930u 
    1.15000  -112.4524u   -6.1718p   -1.8000u  112.4524u 
    1.20000  -116.1883u   -6.2014p   -1.8000u  116.1883u 
    1.25000  -119.8999u   -6.2254p   -1.8000u  119.8999u 
    1.30000  -123.5868u   -6.2429p   -1.8000u  123.5868u 
    1.35000  -127.2484u   -6.2525p   -1.8000u  127.2484u 
    1.40000  -130.8843u   -6.2529p   -1.8000u  130.8843u 
    1.45000  -134.4942u   -6.2425p   -1.8000u  134.4942u 
    1.50000  -138.0778u   -6.2194p   -1.8000u  138.0778u 
    1.55000  -141.6348u   -6.1816p   -1.8000u  141.6348u 
    1.60000  -145.1653u   -6.1269p   -1.8000u  145.1653u 
    1.65000  -148.6692u   -6.0526p   -1.8000u  148.6692u 
    1.70000  -152.1466u   -5.9558p   -1.8000u  152.1466u 
    1.75000  -155.5976u   -5.8333p   -1.8000u  155.5976u 
    1.80000  -159.0225u   -5.6814p   -1.8000u  159.0225u 
y
 ******
 * nmos.sp

 ****** dc transfer curves tnom=  25.000 temp=  70.000 ******
  *** parameter 0:vgs  =     1.0000        ***
  
x

 volt         current    current    current    current   
             vds        vgs        vvdd       mmn.main   
    0.          7.1453p  -14.2906p   -1.8000u   -7.1453p 
   50.00000m  -27.9366u  -14.0576p   -1.8000u   27.9366u 
  100.00000m  -52.3559u  -13.8249p   -1.8000u   52.3559u 
  150.00000m  -72.2640u  -13.6683p   -1.8000u   72.2640u 
  200.00000m  -85.8071u  -13.6287p   -1.8000u   85.8071u 
  250.00000m  -94.7596u  -13.6681p   -1.8000u   94.7596u 
  300.00000m -101.8103u  -13.7404p   -1.8000u  101.8103u 
  350.00000m -108.0222u  -13.8301p   -1.8000u  108.0222u 
  400.00000m -113.7867u  -13.9318p   -1.8000u  113.7867u 
  450.00000m -119.2742u  -14.0429p   -1.8000u  119.2742u 
  500.00000m -124.5707u  -14.1620p   -1.8000u  124.5707u 
  550.00000m -129.7238u  -14.2880p   -1.8000u  129.7238u 
  600.00000m -134.7619u  -14.4199p   -1.8000u  134.7619u 
  650.00000m -139.7027u  -14.5572p   -1.8000u  139.7027u 
  700.00000m -144.5577u  -14.6994p   -1.8000u  144.5577u 
  750.00000m -149.3347u  -14.8459p   -1.8000u  149.3347u 
  800.00000m -154.0389u  -14.9964p   -1.8000u  154.0389u 
  850.00000m -158.6740u  -15.1522p   -1.8000u  158.6740u 
  900.00000m -163.2426u  -15.3111p   -1.8000u  163.2426u 
  950.00000m -167.7467u  -15.4711p   -1.8000u  167.7467u 
    1.00000  -172.1878u  -15.6318p   -1.8000u  172.1878u 
    1.05000  -176.5670u  -15.7929p   -1.8000u  176.5670u 
    1.10000  -180.8853u  -15.9541p   -1.8000u  180.8853u 
    1.15000  -185.1438u  -16.1149p   -1.8000u  185.1438u 
    1.20000  -189.3431u  -16.2748p   -1.8000u  189.3431u 
    1.25000  -193.4842u  -16.4333p   -1.8000u  193.4842u 
    1.30000  -197.5679u  -16.5897p   -1.8000u  197.5679u 
    1.35000  -201.5952u  -16.7433p   -1.8000u  201.5952u 
    1.40000  -205.5671u  -16.8933p   -1.8000u  205.5671u 
    1.45000  -209.4845u  -17.0387p   -1.8000u  209.4845u 
    1.50000  -213.3486u  -17.1785p   -1.8000u  213.3486u 
    1.55000  -217.1605u  -17.3115p   -1.8000u  217.1605u 
    1.60000  -220.9215u  -17.4362p   -1.8000u  220.9215u 
    1.65000  -224.6329u  -17.5511p   -1.8000u  224.6329u 
    1.70000  -228.2960u  -17.6545p   -1.8000u  228.2960u 
    1.75000  -231.9121u  -17.7443p   -1.8000u  231.9121u 
    1.80000  -235.4827u  -17.8182p   -1.8000u  235.4827u 
y
 ******
 * nmos.sp

 ****** dc transfer curves tnom=  25.000 temp=  70.000 ******
  *** parameter 0:vgs  =     1.2000        ***
  
x

 volt         current    current    current    current   
             vds        vgs        vvdd       mmn.main   
    0.         16.1219p  -32.2438p   -1.8000u  -16.1219p 
   50.00000m  -33.4790u  -31.7843p   -1.8000u   33.4790u 
  100.00000m  -64.8250u  -31.2861p   -1.8000u   64.8250u 
  150.00000m  -93.8701u  -30.8543p   -1.8000u   93.8701u 
  200.00000m -120.1502u  -30.4977p   -1.8000u  120.1502u 
  250.00000m -142.3027u  -30.2702p   -1.8000u  142.3027u 
  300.00000m -158.4176u  -30.2399p   -1.8000u  158.4176u 
  350.00000m -169.5243u  -30.3662p   -1.8000u  169.5243u 
  400.00000m -178.1071u  -30.5694p   -1.8000u  178.1071u 
  450.00000m -185.4804u  -30.8116p   -1.8000u  185.4804u 
  500.00000m -192.1907u  -31.0779p   -1.8000u  192.1907u 
  550.00000m -198.4843u  -31.3617p   -1.8000u  198.4843u 
  600.00000m -204.4863u  -31.6593p   -1.8000u  204.4863u 
  650.00000m -210.2664u  -31.9687p   -1.8000u  210.2664u 
  700.00000m -215.8664u  -32.2882p   -1.8000u  215.8664u 
  750.00000m -221.3133u  -32.6168p   -1.8000u  221.3133u 
  800.00000m -226.6247u  -32.9536p   -1.8000u  226.6247u 
  850.00000m -231.8134u  -33.2978p   -1.8000u  231.8134u 
  900.00000m -236.8883u  -33.6490p   -1.8000u  236.8883u 
  950.00000m -241.8562u  -34.0067p   -1.8000u  241.8562u 
    1.00000  -246.7226u  -34.3705p   -1.8000u  246.7226u 
    1.05000  -251.4917u  -34.7417p   -1.8000u  251.4917u 
    1.10000  -256.1672u  -35.1181p   -1.8000u  256.1672u 
    1.15000  -260.7521u  -35.4979p   -1.8000u  260.7521u 
    1.20000  -265.2495u  -35.8805p   -1.8000u  265.2495u 
    1.25000  -269.6618u  -36.2658p   -1.8000u  269.6618u 
    1.30000  -273.9916u  -36.6534p   -1.8000u  273.9916u 
    1.35000  -278.2413u  -37.0428p   -1.8000u  278.2413u 
    1.40000  -282.4133u  -37.4337p   -1.8000u  282.4133u 
    1.45000  -286.5098u  -37.8255p   -1.8000u  286.5098u 
    1.50000  -290.5333u  -38.2176p   -1.8000u  290.5333u 
    1.55000  -294.4859u  -38.6093p   -1.8000u  294.4859u 
    1.60000  -298.3702u  -38.9997p   -1.8000u  298.3702u 
    1.65000  -302.1882u  -39.3881p   -1.8000u  302.1882u 
    1.70000  -305.9426u  -39.7733p   -1.8000u  305.9426u 
    1.75000  -309.6355u  -40.1541p   -1.8000u  309.6355u 
    1.80000  -313.2693u  -40.5293p   -1.8000u  313.2693u 
y
 ******
 * nmos.sp

 ****** dc transfer curves tnom=  25.000 temp=  70.000 ******
  *** parameter 0:vgs  =     1.4000        ***
  
x

 volt         current    current    current    current   
             vds        vgs        vvdd       mmn.main   
    0.         33.4698p  -66.9403p   -1.8000u  -33.4698p 
   50.00000m  -35.9837u  -66.0436p   -1.8000u   35.9837u 
  100.00000m  -70.4740u  -65.0436p   -1.8000u   70.4740u 
  150.00000m -103.4132u  -64.1466p   -1.8000u  103.4132u 
  200.00000m -134.7013u  -63.3319p   -1.8000u  134.7013u 
  250.00000m -164.1270u  -62.6081p   -1.8000u  164.1270u 
  300.00000m -191.1697u  -62.0125p   -1.8000u  191.1697u 
  350.00000m -214.5768u  -61.6347p   -1.8000u  214.5768u 
  400.00000m -232.6451u  -61.5845p   -1.8000u  232.6451u 
  450.00000m -245.6702u  -61.8334p   -1.8000u  245.6702u 
  500.00000m -255.6831u  -62.2542p   -1.8000u  255.6831u 
  550.00000m -264.1238u  -62.7644p   -1.8000u  264.1238u 
  600.00000m -271.6795u  -63.3272p   -1.8000u  271.6795u 
  650.00000m -278.6755u  -63.9256p   -1.8000u  278.6755u 
  700.00000m -285.2790u  -64.5508p   -1.8000u  285.2790u 
  750.00000m -291.5841u  -65.1978p   -1.8000u  291.5841u 
  800.00000m -297.6472u  -65.8635p   -1.8000u  297.6472u 
  850.00000m -303.5048u  -66.5458p   -1.8000u  303.5048u 
  900.00000m -309.1816u  -67.2429p   -1.8000u  309.1816u 
  950.00000m -314.6951u  -67.9538p   -1.8000u  314.6951u 
    1.00000  -320.0582u  -68.6775p   -1.8000u  320.0582u 
    1.05000  -325.2811u  -69.4133p   -1.8000u  325.2811u 
    1.10000  -330.3716u  -70.1606p   -1.8000u  330.3716u 
    1.15000  -335.3364u  -70.9189p   -1.8000u  335.3364u 
    1.20000  -340.1814u  -71.6878p   -1.8000u  340.1814u 
    1.25000  -344.9114u  -72.4687p   -1.8000u  344.9114u 
    1.30000  -349.5312u  -73.2594p   -1.8000u  349.5312u 
    1.35000  -354.0450u  -74.0580p   -1.8000u  354.0450u 
    1.40000  -358.4568u  -74.8641p   -1.8000u  358.4568u 
    1.45000  -362.7704u  -75.6774p   -1.8000u  362.7704u 
    1.50000  -366.9896u  -76.4977p   -1.8000u  366.9896u 
    1.55000  -371.1179u  -77.3246p   -1.8000u  371.1179u 
    1.60000  -375.1588u  -78.1576p   -1.8000u  375.1588u 
    1.65000  -379.1160u  -78.9963p   -1.8000u  379.1160u 
    1.70000  -382.9926u  -79.8401p   -1.8000u  382.9926u 
    1.75000  -386.7923u  -80.6883p   -1.8000u  386.7923u 
    1.80000  -390.5181u  -81.5402p   -1.8000u  390.5181u 
y
 ******
 * nmos.sp

 ****** dc transfer curves tnom=  25.000 temp=  70.000 ******
  *** parameter 0:vgs  =     1.6000        ***
  
x

 volt         current    current    current    current   
             vds        vgs        vvdd       mmn.main   
    0.         65.3406p -130.6897p   -1.8000u  -65.3406p 
   50.00000m  -37.3373u -129.0056p   -1.8000u   37.3373u 
  100.00000m  -73.5341u -127.0988p   -1.8000u   73.5341u 
  150.00000m -108.5614u -125.3690p   -1.8000u  108.5614u 
  200.00000m -142.3796u -123.7653p   -1.8000u  142.3796u 
  250.00000m -174.9270u -122.2787p   -1.8000u  174.9270u 
  300.00000m -206.0931u -120.9163p   -1.8000u  206.0931u 
  350.00000m -235.6521u -119.7054p   -1.8000u  235.6521u 
  400.00000m -263.0973u -118.7128p   -1.8000u  263.0973u 
  450.00000m -287.3433u -118.0768p   -1.8000u  287.3433u 
  500.00000m -306.9037u -117.9711p   -1.8000u  306.9037u 
  550.00000m -321.6053u -118.3986p   -1.8000u  321.6053u 
  600.00000m -332.9748u -119.1766p   -1.8000u  332.9748u 
  650.00000m -342.4476u -120.1483p   -1.8000u  342.4476u 
  700.00000m -350.8162u -121.2322p   -1.8000u  350.8162u 
  750.00000m -358.4797u -122.3894p   -1.8000u  358.4797u 
  800.00000m -365.6482u -123.5995p   -1.8000u  365.6482u 
  850.00000m -372.4408u -124.8515p   -1.8000u  372.4408u 
  900.00000m -378.9300u -126.1384p   -1.8000u  378.9300u 
  950.00000m -385.1622u -127.4558p   -1.8000u  385.1622u 
    1.00000  -391.1695u -128.8005p   -1.8000u  391.1695u 
    1.05000  -396.9746u -130.1704p   -1.8000u  396.9746u 
    1.10000  -402.5946u -131.5638p   -1.8000u  402.5946u 
    1.15000  -408.0429u -132.9794p   -1.8000u  408.0429u 
    1.20000  -413.3303u -134.4163p   -1.8000u  413.3303u 
    1.25000  -418.4658u -135.8737p   -1.8000u  418.4658u 
    1.30000  -423.4573u -137.3510p   -1.8000u  423.4573u 
    1.35000  -428.3118u -138.8476p   -1.8000u  428.3118u 
    1.40000  -433.0356u -140.3633p   -1.8000u  433.0356u 
    1.45000  -437.6345u -141.8994p   -1.8000u  437.6345u 
    1.50000  -442.1142u -143.4538p   -1.8000u  442.1142u 
    1.55000  -446.4797u -145.0244p   -1.8000u  446.4797u 
    1.60000  -450.7360u -146.6112p   -1.8000u  450.7360u 
    1.65000  -454.8881u -148.2137p   -1.8000u  454.8881u 
    1.70000  -458.9406u -149.8319p   -1.8000u  458.9406u 
    1.75000  -462.8980u -151.4653p   -1.8000u  462.8980u 
    1.80000  -466.7647u -153.1136p   -1.8000u  466.7647u 
y
 ******
 * nmos.sp

 ****** dc transfer curves tnom=  25.000 temp=  70.000 ******
  *** parameter 0:vgs  =     1.8000        ***
  
x

 volt         current    current    current    current   
             vds        vgs        vvdd       mmn.main   
    0.        121.9717p -243.9897p   -1.8000u -121.9717p 
   50.00000m  -38.1641u -240.9349p   -1.8000u   38.1641u 
  100.00000m  -75.4090u -237.4403p   -1.8000u   75.4090u 
  150.00000m -111.7171u -234.2527p   -1.8000u  111.7171u 
  200.00000m -147.0673u -231.2726p   -1.8000u  147.0673u 
  250.00000m -181.4318u -228.4742p   -1.8000u  181.4318u 
  300.00000m -214.7704u -225.8504p   -1.8000u  214.7704u 
  350.00000m -247.0189u -223.4064p   -1.8000u  247.0189u 
  400.00000m -278.0626u -221.1635p   -1.8000u  278.0626u 
  450.00000m -307.6764u -219.1727p   -1.8000u  307.6764u 
  500.00000m -335.3898u -217.5431p   -1.8000u  335.3898u 
  550.00000m -360.2687u -216.4839p   -1.8000u  360.2687u 
  600.00000m -381.0167u -216.2631p   -1.8000u  381.0167u 
  650.00000m -397.1810u -216.9457p   -1.8000u  397.1810u 
  700.00000m -409.8272u -218.2917p   -1.8000u  409.8272u 
  750.00000m -420.2963u -220.0313p   -1.8000u  420.2963u 
  800.00000m -429.4485u -222.0020p   -1.8000u  429.4485u 
  850.00000m -437.7491u -224.1205p   -1.8000u  437.7491u 
  900.00000m -445.4509u -226.3430p   -1.8000u  445.4509u 
  950.00000m -452.6990u -228.6453p   -1.8000u  452.6990u 
    1.00000  -459.5822u -231.0128p   -1.8000u  459.5822u 
    1.05000  -466.1580u -233.4362p   -1.8000u  466.1580u 
    1.10000  -472.4661u -235.9096p   -1.8000u  472.4661u 
    1.15000  -478.5349u -238.4284p   -1.8000u  478.5349u 
    1.20000  -484.3856u -240.9898p   -1.8000u  484.3856u 
    1.25000  -490.0353u -243.5913p   -1.8000u  490.0353u 
    1.30000  -495.4974u -246.2312p   -1.8000u  495.4974u 
    1.35000  -500.7837u -248.9082p   -1.8000u  500.7837u 
    1.40000  -505.9041u -251.6213p   -1.8000u  505.9041u 
    1.45000  -510.8674u -254.3696p   -1.8000u  510.8674u 
    1.50000  -515.6818u -257.1527p   -1.8000u  515.6818u 
    1.55000  -520.3546u -259.9701p   -1.8000u  520.3546u 
    1.60000  -524.8927u -262.8214p   -1.8000u  524.8927u 
    1.65000  -529.3028u -265.7080p   -1.8000u  529.3028u 
    1.70000  -533.5911u -268.6280p   -1.8000u  533.5911u 
    1.75000  -537.7634u -271.5794p   -1.8000u  537.7634u 
    1.80000  -541.8256u -274.5620p   -1.8000u  541.8256u 
y

          ***** job concluded
 ******  
 * nmos.sp

 ****** job statistics summary tnom=  25.000 temp=  70.000 ******
  
 ******  Machine Information  ******
 CPU:
 model name	: Intel(R) Xeon(R) Silver 4215R CPU @ 3.20GHz
 cpu MHz	: 3198.966
  
 OS:
 Linux version 3.10.0-514.6.2.el7.x86_64 (mockbuild@x86-017.build.eng.bos.redhat.com) (gcc version 4.8.5 20150623 (Red Hat 4.8.5-11) (GCC) ) #1 SMP Fri Feb 17 19:21:31 EST 2017


  ******  HSPICE Threads Information  ******

  Command Line Threads Count :     1
  Available CPU Count        :     6
  Actual Threads Count       :     1


  ****** Statistics of Ignored Elements ******
  Voltage Sources :       1

  ******  Circuit Statistics  ******
  # nodes       =       4 # elements   =       5
  # resistors   =       1 # capacitors =       0 # inductors   =       0
  # mutual_inds =       0 # vccs       =       0 # vcvs        =       0
  # cccs        =       0 # ccvs       =       0 # volt_srcs   =       3
  # curr_srcs   =       0 # diodes     =       0 # bjts        =       0
  # jfets       =       0 # mosfets    =       1 # U elements  =       0
  # T elements  =       0 # W elements =       0 # B elements  =       0
  # S elements  =       0 # P elements =       0 # va device   =       0
  # vector_srcs =       0 # N elements =       0


  ******  Runtime Statistics (seconds)  ******

  analysis           time    # points   tot. iter  conv.iter
  op point           0.00           1           0
  dc sweep           0.01         370         752
  readin             0.01
  errchk             0.01
  setup              0.00
  output             0.00


           peak memory used        284.32 megabytes
           total cpu time            0.03 seconds
           total elapsed time       48.12 seconds
           job started at     16:47:04 09/22/2025
           job ended   at     16:47:52 09/22/2025



>info:         ***** hspice job concluded
 lic: Release hspice token(s) 
 lic: total license checkout elapse time:       48.09(s)
