Using: /usr/synopsys/HSPICE/hspice/O-2018.09-1/hspice/linux64/hspice  -i 'nor3.sp'
 ****** HSPICE -- O-2018.09-1 linux64 (Sep 27 2018) ******                      
  Copyright (c) 1986 - 2025 by Synopsys, Inc. All Rights Reserved.              
  This software and the associated documentation are proprietary
  to Synopsys, Inc. This software may only be used in accordance
  with the terms and conditions of a written license agreement with
  Synopsys, Inc. All other use, reproduction, or distribution of
  this software is strictly prohibited.
  Input File: nor3.sp                                                           
  Command line options: /usr/synopsys/HSPICE/hspice/O-2018.09-1/hspice/linux64/hspice -i nor3.sp
 lic:  
 lic: FLEXlm: SDK_11.6.9.6 
 lic: USER:   mohammed             HOSTNAME: husynposyseng 
 lic: HOSTID: 005056ba9913         PID:      15284 
 lic: Using FLEXlm license file: 
 lic: 27020@husynposyseng 
 lic: Checkout 1 hspice 
 lic: License/Maintenance for hspice will expire on 31-jan-2026/2025.06 
 lic: 2(in_use)/100(total) FLOATING license(s) on SERVER 27020@husynposyseng 
 lic:   
1****** HSPICE -- O-2018.09-1 linux64 (Sep 27 2018) ******                      
 ******  
 *** nor3.sp

 ****** circuit name directory
 circuit number to circuit name directory
   number circuitname                     definition         multiplier
        0 main circuit
        1 mmpa.                           p105_hvt           1.00 
        2 mmpb.                           p105_hvt           1.00 
        3 mmpc.                           p105_hvt           1.00 
        4 mmna.                           n105_hvt           1.00 
        5 mmnb.                           n105_hvt           1.00 
        6 mmnc.                           n105_hvt           1.00 
 ******  
 *** nor3.sp

 ****** mos   model parameters tnom=  25.000 temp=  25.000 ******
 Model file: ../../saed32nm.lib
 Model line:         1860
 Model Name: p105_hvt  
 BSIM4 Model (Level 54)
    MOBMOD = 0
    BINUNIT = 1
    PARAMCHK = 0
    CAPMOD = 2
    DIOMOD = 1
    RDSMOD = 0
    TRNQSMOD = 0
    ACNQSMOD = 0
    RBODYMOD = 0
    RGATEMOD = 0
    PERMOD = 1
    GEOMOD = 0
    RGEOMOD = 0
    FNOIMOD = 1
    TNOIMOD = 0
    IGCMOD = 1
    IGBMOD = 1
    STIMOD = 1
    VBFWDMOD = 0
    VERSION =    4.5 
    TOXREF = 2.62e-09 
    TOXE = 2.62e-09 
    TOXP = 2.3e-09 
    TOXM = 2.62e-09 
    DTOX =      0 
    EPSROX =    3.9 
    CDSC = 0.02157 
    CDSCB =  0.001 
    CDSCD = 0.001494 
    CIT =      0 
    NFACTOR =      1 
    XJ =  1e-07 
    VSAT = 1.606e+05 
    A0 =    4.3 
    AGS =  1.048 
    A1 =      0 
    A2 = 0.3157 
    AT = 0.0017 
    KETA =      0 
    NSUB =  6e+16 
    NDEP = 1.7e+17 
    NSD =  1e+20 
    NGATE = 2.452e+20 
    GAMMA1 =      0 
    GAMMA2 =      0 
    VBX =      0 
    VBM =     -3 
    XT = 1.55e-07 
    K1 =   0.37 
    KT1 = -0.327 
    KT1L = -2.7e-09 
    KT2 = -0.035 
    K2 = -0.02479 
    K3 = -1.284 
    K3B =   0.52 
    LPE0 = 2.05e-08 
    LPEB =  1e-08 
    DVTP0 = 8.467e-06 
    DVTP1 =  3.222 
    W0 =  6e-09 
    DVT0 = 0.6336 
    DVT1 =  1.158 
    DVT2 =   0.12 
    DVT0W = -0.0008095 
    DVT1W = 1.854e+06 
    DVT2W =      1 
    DROUT =   0.56 
    DSUB = 0.4346 
    VTH0 = -0.3406 
    EU =      1 
    UA = 8.24e-13 
    UA1 = 0.0001027 
    UB = 1.714e-18 
    UB1 = -5e-05 
    UC =  1e-10 
    UC1 = -0.000605 
    U0 =    291 
    UTE =  -1.72 
    VOFF =  -0.13 
    VOFFL = -3.507e-09 
    MINV =    0.5 
    FPROUT =     60 
    PDITS = 0.8644 
    PDITSD = 0.7248 
    PDITSL =  1e+06 
    DELTA =   0.01 
    RDSW =    160 
    RDSWMIN =      0 
    RDWMIN =      0 
    RSWMIN =      0 
    RDW =    100 
    RSW =    100 
    PRWG =      0 
    PRWB =      0 
    PRT =  0.009 
    ETA0 = 0.04493 
    ETAB = -0.04419 
    PCLM = 0.06233 
    PDIBLC1 = 1.014e-07 
    PDIBLC2 = 1.5e-05 
    PDIBLCB =      0 
    PSCBE1 =  5e+09 
    PSCBE2 =  5e-06 
    PVAG =      0 
    WR =      1 
    DWG =      0 
    DWB =      0 
    XW =      0 
    XWREF =      0 
    XL = 2.3e-09 
    XLREF = 2.3e-09 
    B0 =      0 
    B1 =      0 
    ALPHA0 = 8.656e-12 
    ALPHA1 =      0 
    AGIDL = 1.19e-11 
    BGIDL = 3.415e+08 
    CGIDL =     15 
    PHIN =      0 
    EGIDL =  1e-08 
    AIGC = 0.007152 
    BIGC = 0.001215 
    CIGC =    0.1 
    AIGSD = 0.004214 
    BIGSD =      0 
    CIGSD =      0 
    AIGBACC = 0.01249 
    BIGBACC = 0.00233 
    CIGBACC = -1e-10 
    AIGBINV = 0.01311 
    BIGBINV = 0.002519 
    CIGBINV = 0.0005126 
    NIGC =   1.77 
    NIGBINV =      1 
    NIGBACC =  2.856 
    NTOX =      1 
    EIGBINV = 1.726e-06 
    PIGCD =      1 
    POXEDGE =  1.467 
    XRCRG1 =     12 
    TNOIA =    1.5 
    TNOIB =    3.5 
    NTNOI =      1 
    XRCRG2 =      1 
    BETA0 =      6 
    IJTHDFWD =    0.1 
    IJTHSFWD =    0.1 
    IJTHDREV =    0.1 
    IJTHSREV =    0.1 
    XJBVD =      1 
    XJBVS =      1 
    BVD =     12 
    BVS =     12 
    VFB =     -1 
    GBMIN =  1e-12 
    RBDB =     50 
    RBPB =     50 
    RBSB =     50 
    RBPS =     50 
    RBPD =     50 
    CGSL = 1.121e-10 
    CGDL = 1.121e-10 
    CKAPPAS =  2.973 
    CKAPPAD =  2.973 
    CF =      0 
    CLC =      0 
    CLE =    0.6 
    DWC =      0 
    DLC = 5.028e-09 
    DLCIG =  7e-09 
    DWJ =      0 
    VFBCV =     -1 
    ACDE =    0.5 
    MOIN =      5 
    NOFF =  2.401 
    VOFFCV = -0.075 
    DMCG =  7e-08 
    DMCI = 3.5e-08 
    DMDG =  6e-08 
    DMCGT =      0 
    XGW =  4e-08 
    XGL = -2e-09 
    RSHG =     11 
    NGCON =      1 
    TCJ = 0.0008822 
    TPB = 0.001392 
    TCJSW = 0.0007589 
    TPBSW = 0.0009973 
    TCJSWG = 0.0007282 
    TPBSWG = 0.0003417 
    SK0 =      0 
    SK1 =      0 
    SK2 =      0 
    SL =  2e-06 
    SW =  2e-06 
    K =      0 
    LNFACTOR =  0.045 
    LLPE0 = 2.3e-09 
    LDVT0 = 0.09729 
    LUTE = 0.0425 
    LMINV = -0.026 
    LETAB = 0.001264 
    LAIGC = -1.69e-05 
    LNOFF = 0.05705 
    LVOFFCV = -0.0034 
    WU0 =  4.544 
    PVSAT =   10.2 
    PDSUB = 0.0003 
    TNOM =  298.1 
    CGSO = 6.259e-11 
    CGDO = 6.259e-11 
    CGBO =      0 
    XPART =      0 
    RSH =      9 
    JSS = 8.942e-07 
    JSWS = 2.348e-13 
    JSWGS = 2.339e-13 
    PBS = 0.6893 
    MJS = 0.3146 
    PBSWS = 0.2669 
    MJSWS = 0.1452 
    CJS = 0.1935 
    CJSWS = 6.5e-11 
    NJS =  1.098 
    PBSWGS =   0.65 
    MJSWGS =  0.564 
    CJSWGS =  3e-10 
    XTIS =      3 
    JSD = 8.942e-07 
    JSWD = 2.348e-13 
    JSWGD = 2.339e-13 
    PBD = 0.6893 
    MJD = 0.3146 
    PBSWD = 0.2669 
    MJSWD = 0.1452 
    CJD = 0.1935 
    CJSWD = 6.5e-11 
    NJD =  1.098 
    PBSWGD =   0.65 
    MJSWGD =  0.564 
    CJSWGD =  3e-10 
    XTID =      3 
    LMLT =      1 
    WMLT =      1 
    LINT =      0 
    LL =      0 
    LLC =      0 
    LLN =      1 
    LW =      0 
    LWC =      0 
    LWN =      1 
    LWL =      0 
    LWLC =      0 
    LMIN =      0 
    LMAX =      1 
    WINT =      0 
    WL =      0 
    WLC =      0 
    WLN =      1 
    WW =      0 
    WWC =      0 
    WWN =      1 
    WWL =      0 
    WWLC =      0 
    WMIN =      0 
    WMAX =      1 
    NOIA = 1.077e+42 
    NOIB = 4.77e+22 
    NOIC = 1.699e+10 
    EM = 4.1e+07 
    EF =   1.04 
    AF =      1 
    KF =      0 
    TRS =      0 
    TRD =      0 
    TEMPMOD  =      1 
    LAMBDA   =      0 
    VTL      =  2e+05 m/s
    LC       =  5e-09 
    XN       =      3 
    LLAMBDA  =      0 
    LVTL     =      0 
    LXN      =      0 
    WLAMBDA  =      0 
    WVTL     =      0 
    WXN      =      0 
    PLAMBDA  =      0 
    PVTL     =      0 
    PXN      =      0 
    RNOIA    =  0.577 
    RNOIB    = 0.5164 
    SAREF(SA0) = 4.48e-07 m
    SBREF(SB0) = 4.48e-07 m
    WLOD     =      0 m
    KU0      = -1.31e-09 1/m
    KVSAT    =      0 
    KVTH0    = -1.18e-09 m
    TKU0     =      0 
    LLODKU0  =      0 
    WLODKU0  =      0 
    LLODVTH  =      0 
    WLODVTH  =      0 
    LKU0     =      0 
    WKU0     =      0 
    PKU0     =      0 
    LKVTH0   =      0 
    WKVTH0   =      0 
    PKVTH0   =      0 
    STK2     =      0 
    LODK2    =      1 
    STETA0   =      0 
    LODETA0  =      1 
    LXRCRG1  =      0 
    WXRCRG1  =      0 
    PXRCRG1  =      0 
    LXRCRG2  =      0 
    WXRCRG2  =      0 
    PXRCRG2  =      0 
     *** UCB's BSIM4.4.0 new diode model is activated. ***
    *** UCB's Diode Model Parameters ***
    JTSS         = 0.0017 
    JTSSWS       =  1e-11 
    JTSSWGS      = 7.788e-10 
    JTSD         = 0.0017 
    JTSSWD       =  1e-11 
    JTSSWGD      = 7.788e-10 
    NJTS         =     20 
    NJTSSW       =     20 
    NJTSSWG      =  2.887 
    XTSS         =   0.02 
    XTSSWS       =   0.02 
    XTSSWGS      = 0.08619 
    XTSD         =   0.02 
    XTSSWD       =   0.02 
    XTSSWGD      = 0.08619 
    TNJTS        =      0 
    TNJTSSW      =      0 
    TNJTSSWG     =   0.32 
    VFBSDOFF     =      0 
    LVFBSDOFF    =      0 
    WVFBSDOFF    =      0 
    PVFBSDOFF    =      0 
    LINTNOI      =      0 
    VTSS         =     10 
    VTSD         =     10 
    VTSSWS       =     10 
    VTSSWD       =     10 
    VTSSWGS      =      1 
    VTSSWGD      =      1 
    TTDIOMOD     =      1 
     *** UCB's BSIM4.5.0 new model is activated. ***
    UD         =      0 
    UD1        =      0 
    UP         =  0.262 
    LP         = 3.199e-07 
    TVOFF      =      0 
    TVFBSDOFF  =      0 
    RBPS0      =     50 
    RBPSL      =      0 
    RBPSW      =      0 
    RBPSNF     =      0 
    RBPD0      =     50 
    RBPDL      =      0 
    RBPDW      =      0 
    RBPDNF     =      0 
    RBPBX0     =    100 
    RBPBXL     =      0 
    RBPBXW     =      0 
    RBPBXNF    =      0 
    RBPBY0     =    100 
    RBPBYL     =      0 
    RBPBYW     =      0 
    RBPBYNF    =      0 
    RBSBX0     =    100 
    RBSBY0     =    100 
    RBDBX0     =    100 
    RBDBY0     =    100 
    RBSDBXL    =      0 
    RBSDBXW    =      0 
    RBSDBXNF   =      0 
    RBSDBYL    =      0 
    RBSDBYW    =      0 
    RBSDBYNF   =      0 
    LUD        =      0 
    LUD1       =      0 
    LUP        =      0 
    LLP        =      0 
    LTVOFF     =      0 
    LTVFBSDOFF =      0 
    WUD        =      0 
    WUD1       =      0 
    WUP        =      0 
    WLP        =      0 
    WTVOFF     =      0 
    WTVFBSDOFF =      0 
    PUD        =      0 
    PUD1       =      0 
    PUP        =      0 
    PLP        =      0 
    PTVOFF     =      0 
    PTVFBSDOFF =      0 
    WEB        = 6.7e+05 
    WEC        = -7e+05 
    KVTH0WE    = -9.23e-07 
    K2WE       =      0 
    KU0WE      =      0 
    SCREF      = 2.5e-06 
    WPEMOD     =      1 
    LKVTH0WE   =      0 
    LK2WE      =      0 
    LKU0WE     =      0 
    WKVTH0WE   =      0 
    WK2WE      =      0 
    WKU0WE     =      0 
    PKVTH0WE   =      0 
    PK2WE      =      0 
    PKU0WE     =      0 
 Model file: ../../saed32nm.lib
 Model line:         1730
 Model Name: n105_hvt  
 BSIM4 Model (Level 54)
    MOBMOD = 0
    BINUNIT = 1
    PARAMCHK = 0
    CAPMOD = 2
    DIOMOD = 1
    RDSMOD = 0
    TRNQSMOD = 0
    ACNQSMOD = 0
    RBODYMOD = 0
    RGATEMOD = 0
    PERMOD = 1
    GEOMOD = 0
    RGEOMOD = 0
    FNOIMOD = 1
    TNOIMOD = 0
    IGCMOD = 1
    IGBMOD = 1
    STIMOD = 1
    VBFWDMOD = 0
    VERSION =    4.5 
    TOXREF = 2.39e-09 
    TOXE = 2.39e-09 
    TOXP = 2.24e-09 
    TOXM = 2.39e-09 
    DTOX =      0 
    EPSROX =    3.9 
    CDSC =      0 
    CDSCB = -0.00415 
    CDSCD =      0 
    CIT =      0 
    NFACTOR =    1.9 
    XJ =  1e-07 
    VSAT = 2.141e+05 
    A0 =    1.8 
    AGS =  1.232 
    A1 =      0 
    A2 =    0.4 
    AT = 0.00122 
    KETA =      0 
    NSUB =  6e+16 
    NDEP =  5e+17 
    NSD =  1e+20 
    NGATE =  1e+23 
    GAMMA1 =      0 
    GAMMA2 =      0 
    VBX =      0 
    VBM =     -3 
    XT = 1.55e-07 
    K1 = 0.3435 
    KT1 = -0.2796 
    KT1L =  1e-11 
    KT2 = -0.0232 
    K2 = -0.03171 
    K3 =  -2.15 
    K3B =  -0.22 
    LPE0 =  1e-08 
    LPEB =  2e-08 
    DVTP0 = 1.2e-06 
    DVTP1 =      0 
    W0 =      0 
    DVT0 =  3.571 
    DVT1 =    0.8 
    DVT2 =   0.06 
    DVT0W = -0.002336 
    DVT1W = 4.278e+05 
    DVT2W =   0.15 
    DROUT =   0.06 
    DSUB =    0.9 
    VTH0 =  0.447 
    EU =   1.67 
    UA = 9.209e-10 
    UA1 = 0.003827 
    UB = 2.207e-18 
    UB1 = -0.004406 
    UC = 2.6e-10 
    UC1 =      0 
    U0 =   1900 
    UTE =  -1.91 
    VOFF = -0.1554 
    VOFFL = -2.94e-09 
    MINV = -0.168 
    FPROUT =     50 
    PDITS = 0.5299 
    PDITSD =    0.9 
    PDITSL = 2.5e+06 
    DELTA =  0.005 
    RDSW =  400.5 
    RDSWMIN =      0 
    RDWMIN =    180 
    RSWMIN =    180 
    RDW =    100 
    RSW =    100 
    PRWG =      0 
    PRWB =    0.1 
    PRT =  0.015 
    ETA0 =  0.263 
    ETAB =  -0.12 
    PCLM = 0.5198 
    PDIBLC1 = 0.00015 
    PDIBLC2 =  0.025 
    PDIBLCB =   -0.7 
    PSCBE1 =  5e+09 
    PSCBE2 =  5e-06 
    PVAG =      6 
    WR =      1 
    DWG =      0 
    DWB =      0 
    XW = 4.3e-07 
    XWREF = 4.3e-07 
    XL =  2e-09 
    XLREF =  2e-09 
    B0 =      0 
    B1 =      0 
    ALPHA0 =  4e-12 
    ALPHA1 =      0 
    AGIDL = 1.5e-10 
    BGIDL = 9.749e+08 
    CGIDL =    3.2 
    PHIN =    0.1 
    EGIDL =   0.01 
    AIGC = 0.01086 
    BIGC = 0.0009868 
    CIGC = 0.000296 
    AIGSD = 0.00889 
    BIGSD = 0.0007742 
    CIGSD = 0.01464 
    AIGBACC = 0.01356 
    BIGBACC = 0.00279 
    CIGBACC = 0.01086 
    AIGBINV = 0.01142 
    BIGBINV = 0.001212 
    CIGBINV = 0.001479 
    NIGC =  3.294 
    NIGBINV =      3 
    NIGBACC =   8.23 
    NTOX =      1 
    EIGBINV =    1.1 
    PIGCD =      1 
    POXEDGE =  1.276 
    XRCRG1 =     12 
    TNOIA =    1.5 
    TNOIB =    3.5 
    NTNOI =      1 
    XRCRG2 =      1 
    BETA0 =      2 
    IJTHDFWD =    0.1 
    IJTHSFWD =    0.1 
    IJTHDREV =    0.1 
    IJTHSREV =    0.1 
    XJBVD =      1 
    XJBVS =      1 
    BVD =     12 
    BVS =     12 
    VFB =     -1 
    GBMIN =  1e-12 
    RBDB =     50 
    RBPB =     50 
    RBSB =     50 
    RBPS =     50 
    RBPD =     50 
    CGSL = 1.765e-10 
    CGDL = 1.077e-09 
    CKAPPAS =    4.5 
    CKAPPAD =    4.5 
    CF =      0 
    CLC =      0 
    CLE =    0.6 
    DWC =      0 
    DLC = 7.834e-09 
    DLCIG =  5e-09 
    DWJ =      0 
    VFBCV =     -1 
    ACDE =    0.4 
    MOIN =      5 
    NOFF =  2.118 
    VOFFCV = -0.2843 
    DMCG =  7e-08 
    DMCI = 3.5e-08 
    DMDG =  6e-08 
    DMCGT =      0 
    XGW =  4e-08 
    XGL = -2e-09 
    RSHG =     11 
    NGCON =      1 
    TCJ = 0.0007111 
    TPB = 0.001251 
    TCJSW = 0.0005498 
    TPBSW = 0.00108 
    TCJSWG = 6.6e-05 
    TPBSWG = 0.002588 
    SK0 =      0 
    SK1 =      0 
    SK2 =      0 
    SL =  2e-06 
    SW =  2e-06 
    K =      0 
    LNFACTOR =   0.05 
    LLPE0 = 2.5e-09 
    LUTE = 0.03886 
    LBGIDL = -5e+06 
    LAIGC = -7.7e-06 
    LNOFF =   0.08 
    WU0 =  56.01 
    PVSAT =  223.3 
    TNOM =  298.1 
    CGSO = 5.1e-11 
    CGDO = 5.1e-11 
    CGBO =  1e-12 
    XPART =      0 
    RSH =     12 
    JSS =  1e-06 
    JSWS = 1.484e-13 
    JSWGS = 7.172e-13 
    PBS = 0.8977 
    MJS = 0.4077 
    PBSWS =      1 
    MJSWS = 0.5128 
    CJS = 0.1935 
    CJSWS = 8.2e-11 
    NJS =  1.104 
    PBSWGS =  1.442 
    MJSWGS =   0.98 
    CJSWGS = 3.2e-10 
    XTIS =   -0.6 
    JSD =  1e-06 
    JSWD = 1.484e-13 
    JSWGD = 7.172e-13 
    PBD = 0.8977 
    MJD = 0.4077 
    PBSWD =      1 
    MJSWD = 0.5128 
    CJD = 0.1935 
    CJSWD = 8.2e-11 
    NJD =  1.104 
    PBSWGD =  1.442 
    MJSWGD =   0.98 
    CJSWGD = 3.2e-10 
    XTID =   -0.6 
    LMLT =      1 
    WMLT =      1 
    LINT = 1.934e-10 
    LL =      0 
    LLC =      0 
    LLN =      1 
    LW =      0 
    LWC =      0 
    LWN =      1 
    LWL =      0 
    LWLC =      0 
    LMIN =      0 
    LMAX =      1 
    WINT =      0 
    WL =      0 
    WLC =      0 
    WLN =      1 
    WW =      0 
    WWC =      0 
    WWN =      1 
    WWL =      0 
    WWLC =      0 
    WMIN =      0 
    WMAX =      1 
    NOIA = 6.72e+41 
    NOIB = 5.413e+23 
    NOIC = 2.288e+09 
    EM = 4.1e+07 
    EF =   0.95 
    AF =      1 
    KF = 1.5e-27 
    TRS =      0 
    TRD =      0 
    TEMPMOD  =      1 
    LAMBDA   =      0 
    VTL      =  2e+05 m/s
    LC       =  5e-09 
    XN       =      3 
    LLAMBDA  =      0 
    LVTL     =      0 
    LXN      =      0 
    WLAMBDA  =      0 
    WVTL     =      0 
    WXN      =      0 
    PLAMBDA  =      0 
    PVTL     =      0 
    PXN      =      0 
    RNOIA    =  0.577 
    RNOIB    = 0.5164 
    SAREF(SA0) = 4.48e-07 m
    SBREF(SB0) = 4.48e-07 m
    WLOD     =      0 m
    KU0      =      0 1/m
    KVSAT    =      0 
    KVTH0    = 6.5e-10 m
    TKU0     =      0 
    LLODKU0  =      0 
    WLODKU0  =      0 
    LLODVTH  =      0 
    WLODVTH  =      0 
    LKU0     =      0 
    WKU0     =      0 
    PKU0     =      0 
    LKVTH0   =      0 
    WKVTH0   =      0 
    PKVTH0   =      0 
    STK2     =      0 
    LODK2    =      1 
    STETA0   =      0 
    LODETA0  =      1 
    LXRCRG1  =      0 
    WXRCRG1  =      0 
    PXRCRG1  =      0 
    LXRCRG2  =      0 
    WXRCRG2  =      0 
    PXRCRG2  =      0 
     *** UCB's BSIM4.4.0 new diode model is activated. ***
    *** UCB's Diode Model Parameters ***
    JTSS         =  5e-06 
    JTSSWS       = 1.2e-10 
    JTSSWGS      = 1.634e-08 
    JTSD         =  5e-06 
    JTSSWD       = 1.2e-10 
    JTSSWGD      = 1.634e-08 
    NJTS         =     20 
    NJTSSW       =     60 
    NJTSSWG      =  7.854 
    XTSS         =   0.02 
    XTSSWS       = 0.5842 
    XTSSWGS      =   0.09 
    XTSD         =   0.02 
    XTSSWD       = 0.5842 
    XTSSWGD      =   0.09 
    TNJTS        =      0 
    TNJTSSW      =    0.8 
    TNJTSSWG     =   0.04 
    VFBSDOFF     =      0 
    LVFBSDOFF    =      0 
    WVFBSDOFF    =      0 
    PVFBSDOFF    =      0 
    LINTNOI      =      0 
    VTSS         =     20 
    VTSD         =     20 
    VTSSWS       =     10 
    VTSSWD       =     10 
    VTSSWGS      =   10.8 
    VTSSWGD      =   10.8 
    TTDIOMOD     =      1 
     *** UCB's BSIM4.5.0 new model is activated. ***
    UD         =      0 
    UD1        =      0 
    UP         =   0.77 
    LP         = 9.65e-08 
    TVOFF      = 0.000366 
    TVFBSDOFF  =      0 
    RBPS0      =     50 
    RBPSL      =      0 
    RBPSW      =      0 
    RBPSNF     =      0 
    RBPD0      =     50 
    RBPDL      =      0 
    RBPDW      =      0 
    RBPDNF     =      0 
    RBPBX0     =    100 
    RBPBXL     =      0 
    RBPBXW     =      0 
    RBPBXNF    =      0 
    RBPBY0     =    100 
    RBPBYL     =      0 
    RBPBYW     =      0 
    RBPBYNF    =      0 
    RBSBX0     =    100 
    RBSBY0     =    100 
    RBDBX0     =    100 
    RBDBY0     =    100 
    RBSDBXL    =      0 
    RBSDBXW    =      0 
    RBSDBXNF   =      0 
    RBSDBYL    =      0 
    RBSDBYW    =      0 
    RBSDBYNF   =      0 
    LUD        =      0 
    LUD1       =      0 
    LUP        =      0 
    LLP        =      0 
    LTVOFF     =      0 
    LTVFBSDOFF =      0 
    WUD        =      0 
    WUD1       =      0 
    WUP        =      0 
    WLP        =      0 
    WTVOFF     =      0 
    WTVFBSDOFF =      0 
    PUD        =      0 
    PUD1       =      0 
    PUP        =      0 
    PLP        =      0 
    PTVOFF     =      0 
    PTVFBSDOFF =      0 
    WEB        = 7.5e+05 
    WEC        = -1e+05 
    KVTH0WE    = 6.361e-07 
    K2WE       =      0 
    KU0WE      =      0 
    SCREF      = 2.5e-06 
    WPEMOD     =      1 
    LKVTH0WE   =      0 
    LK2WE      =      0 
    LKU0WE     =      0 
    WKVTH0WE   =      0 
    WK2WE      =      0 
    WKU0WE     =      0 
    PKVTH0WE   =      0 
    PK2WE      =      0 
    PKU0WE     =      0 
  **info** (nor3.sp:17) DC voltage reset to initial transient source value in source 0:va. new dc=0.0000D+00
  **warning** (nor3.sp:14) Both nodes of element vgnd are connected together; Line ignored.
  
      

Element variations(Local):   element              parameter
 **info** set option symb=1 internally to help for convergence.
 *****************************************************************
 ******  option summary
 ******
 runlvl  = 3         bypass  = 2.0000    
  Opening plot unit= 15
 file=nor3.pa0

 **info** dc convergence successful at Newton-Raphson method 
 ******  
 *** nor3.sp

 ****** operating point information tnom=  25.000 temp=  70.000 ******
 ****** operating point status is voltage   simulation time is     0.     
    node    =voltage      node    =voltage      node    =voltage

 +0:a       =   0.      0:b       =   0.      0:c       =   0.     
 +0:n1      =   1.7997  0:n2      =   1.7999  0:vdd     =   1.8000 
 +0:y       =   1.7996 

 ******
 *** nor3.sp

 ****** transient analysis tnom=  25.000 temp=  70.000 ******
 bl_001_falling=  22.7232p  targ= 172.7232p   trig= 150.0000p
 bl_001_rising=  -4.4281p  targ= 345.5719p   trig= 350.0000p
 bl_010_falling=  25.8735p  targ= 575.8735p   trig= 550.0000p
 bl_010_rising=  -2.2436p  targ= 747.7564p   trig= 750.0000p
 bl_011_falling=   9.2888p  targ= 959.2888p   trig= 950.0000p
 bl_011_rising=  10.1417p  targ=   1.1601n   trig=   1.1500n
 bl_100_falling=  31.1181p  targ=   1.3811n   trig=   1.3500n
 bl_100_rising=  -3.2365p  targ=   1.5468n   trig=   1.5500n
 bl_101_falling=   8.9523p  targ=   1.7590n   trig=   1.7500n
 bl_101_rising=   9.1843p  targ=   1.9592n   trig=   1.9500n
 bl_110_falling=  13.4976p  targ=   2.1635n   trig=   2.1500n
 bl_110_rising=  10.0521p  targ=   2.3601n   trig=   2.3500n
 bl_111_falling=   3.8669p  targ=   2.5539n   trig=   2.5500n
 bl_111_rising=  15.8679p  targ=   2.7659n   trig=   2.7500n

          ***** job concluded
 ******  
 *** nor3.sp

 ****** job statistics summary tnom=  25.000 temp=  70.000 ******
  
 ******  Machine Information  ******
 CPU:
 model name	: Intel(R) Xeon(R) Silver 4215R CPU @ 3.20GHz
 cpu MHz	: 3198.966
  
 OS:
 Linux version 3.10.0-514.6.2.el7.x86_64 (mockbuild@x86-017.build.eng.bos.redhat.com) (gcc version 4.8.5 20150623 (Red Hat 4.8.5-11) (GCC) ) #1 SMP Fri Feb 17 19:21:31 EST 2017


  ******  HSPICE Threads Information  ******

  Command Line Threads Count :     1
  Available CPU Count        :     6
  Actual Threads Count       :     1


  ****** Statistics of Ignored Elements ******
  Voltage Sources :       1

  ******  Circuit Statistics  ******
  # nodes       =       8 # elements   =      10
  # resistors   =       0 # capacitors =       0 # inductors   =       0
  # mutual_inds =       0 # vccs       =       0 # vcvs        =       0
  # cccs        =       0 # ccvs       =       0 # volt_srcs   =       4
  # curr_srcs   =       0 # diodes     =       0 # bjts        =       0
  # jfets       =       0 # mosfets    =       6 # U elements  =       0
  # T elements  =       0 # W elements =       0 # B elements  =       0
  # S elements  =       0 # P elements =       0 # va device   =       0
  # vector_srcs =       0 # N elements =       0


  ******  Runtime Statistics (seconds)  ******

  analysis           time    # points   tot. iter  conv.iter
  op point           0.00           1           3
  transient          0.01        2801         693         253 rev=        17
  readin             0.01
  errchk             0.00
  setup              0.00
  output             0.00


           peak memory used        284.09 megabytes
           total cpu time            0.02 seconds
           total elapsed time       54.13 seconds
           job started at     17:49:36 10/16/2025
           job ended   at     17:50:31 10/16/2025



>info:         ***** hspice job concluded
 lic: Release hspice token(s) 
 lic: total license checkout elapse time:       54.09(s)
